/*--------------------------------*- C++ -*----------------------------------*\
| =========                 |                                                 |
| \\      /  F ield         | OpenFOAM: The Open Source CFD Toolbox           |
|  \\    /   O peration     | Version:  v2312                                 |
|   \\  /    A nd           | Website:  www.openfoam.com                      |
|    \\/     M anipulation  |                                                 |
\*---------------------------------------------------------------------------*/
FoamFile
{
    version     2.0;
    format      ascii;
    class       dictionary;
    object      surfaceFeatureExtractDict;
}
// * * * * * * * * * * * * * * * * * * * * * * * * * * * * * * * * * * * * * //

AMI.stl
{
    #include "surfaceFeatureExtractDictDefaults"
}

shaft.stl
{
    #include "surfaceFeatureExtractDictDefaults"
}

wall.stl
{
    #include "surfaceFeatureExtractDictDefaults"
}

statorBlades.stl
{
    #include "surfaceFeatureExtractDictDefaults"
}

rotorBlades.stl
{
    #include "surfaceFeatureExtractDictDefaults"
}


// ************************************************************************* //
